[General]
network = Simulation01
record-eventlog = true
num-rngs = 4

sim-time-limit = 300s
cpu-time-limit = 300s
total-stack = 7MiB  # increase if necessary
cmdenv-express-mode = true
cmdenv-event-banners = true
cmdenv-performance-display = false

[Config Run1]
*.enter.createIntervalTime = exponential(0.4s)
*.queue1.numQueue = 4
*.queue1.productionTime = exponential(0.25s)
*.queue2.numQueue = 2
*.queue2.productionTime = exponential(0.5s)
*.enter.rng-0 = 1
*.queue1.rng-0 = 2
*.queue2.rng-0 = 3